{"context": "WRF (Weather Research and Forecasting Model)\u3068\u3044\u3046\u306e\u306f\u6c17\u8c61\u30e2\u30c7\u30eb\u3068\u3057\u3066\u5404\u7a2e\u306e\u30d5\u30a1\u30a4\u30eb\u3092\u751f\u6210\u3057\u3066\u304f\u308c\u308b\u3082\u306e\u3089\u3057\u3044\u3002\nhttp://www2.mmm.ucar.edu/wrf/users/\nWRF\u306e\u30bb\u30c3\u30c8\u30a2\u30c3\u30d7\u306b\u95a2\u9023\u3057\u3066\u4ee5\u4e0b\u3092\u898b\u3064\u3051\u305f\u3002\nhttps://github.com/piyushnz/weather-box\n\u4ee5\u4e0b\u304c\u3067\u304d\u308b\u3088\u3046\u3060\u3002\n\nVagrant Box + VirtualBox\u3067\u306e\u30bb\u30c3\u30c8\u30a2\u30c3\u30d7\nUbuntu 14.04 \u3078\u306e\u30a4\u30f3\u30b9\u30c8\u30fc\u30eb\u30b9\u30af\u30ea\u30d7\u30c8\n\nWRF\u306e\u30d0\u30fc\u30b8\u30e7\u30f3\u306f WRF V3.6.1 (updated 2/18/15)\u306a\u306e\u3067\u5c11\u3057\u53e4\u3044\u3002\n\u6700\u65b0\u306fWRF V3.8 (updated 4/8/16)\u306e\u3088\u3046\u3060\u3002\n( http://www2.mmm.ucar.edu/wrf/users/\u306e\u53f3\u4e0b )\u3002\n\nVM\u30a4\u30e1\u30fc\u30b8\u3078\u306e\u30a4\u30f3\u30b9\u30c8\u30fc\u30eb\nVMWare\u4e0a\u306bubuntu-ja-14.04-desktop-amd64.iso\u3092\u7528\u3044\u3066Ubuntu 14.04\u3092\u30a4\u30f3\u30b9\u30c8\u30fc\u30eb\u3057\u3001\u4e0a\u8a18\u306e\u30b9\u30af\u30ea\u30d7\u30c8\u3092\u8a66\u3057\u305f\u3002\n\n/home/[user]\u4ee5\u4e0b\u306bWRFinstall/\u3092\u4f5c\u6210\nweeather-box-master.zip\u3092\u53d6\u5f97\nunzip\u3067zip\u30d5\u30a1\u30a4\u30eb\u3092\u89e3\u51cd (\u89e3\u51cd\u5148: WRFinstall)\n~/WRFinstall/weather-box-master/provision/\u4ee5\u4e0b\u306e\u30d5\u30a1\u30a4\u30eb\u306bchmod 770\u3092\u5b9f\u884c\n~/WRFinstall/weather-box-master/provision/setup_environment.sh\u306e\u3088\u3046\u306b\u5404\u30b9\u30af\u30ea\u30d7\u30c8\u3092\u5b9f\u884c\n\nsetup_environment.sh\u3060\u3051\u30671\u6642\u9593\u8fd1\u304f\u304b\u304b\u3063\u305f\u3002\nUbuntu14.04\u30a4\u30f3\u30b9\u30c8\u30fc\u30eb\u76f4\u5f8c\u306fcurl\u304c\u306a\u3044\u306e\u3067\u3001atp-get install curl\u3067curl\u3092\u30a4\u30f3\u30b9\u30c8\u30fc\u30eb\u5fc5\u8981\u3042\u308a\u3002\ninstall_dependencies.sh\u5b9f\u884c\u6642hdf5-1.8.14: No such file or directory\u3068\u306a\u3063\u305f\u3002\n\u4ee5\u4e0b\u306b\u8a18\u8f09\u306e\u3088\u3046\u306b\u3044\u304f\u304b\u306e\u30d1\u30c3\u30b1\u30fc\u30b8\u3092\u30a4\u30f3\u30b9\u30c8\u30fc\u30eb\u3057\u306a\u3044\u3068\u5931\u6557\u3059\u308b\u3002\nInstall WRF model in Ubuntu Linux\n\nsudo apt-get install m4 csh netcdf-bin hdf4-tools hdf5-tools zlib* jasper libpng-dev build-essential ncl-ncarg gcc gfortran libnetcdf-dev mpich\n\n\u3055\u3089\u306b\u3001\n\n\u30b2\u30b9\u30c8OS\u3068\u306a\u3063\u3066\u3044\u308bUbuntu\u3092\u518d\u8d77\u52d5\u5f8c\u306b\u30cd\u30c3\u30c8\u30ef\u30fc\u30af\u306b\u3064\u306a\u304c\u3089\u306a\u3044\u75c7\u72b6\u304c\u51fa\u305f\nUbuntu\u3067microSD\u3092\u30de\u30a6\u30f3\u30c8\u3059\u308b\u3068\u3001\u305d\u308c\u3092Windows\u5074\u306b\u30de\u30a6\u30f3\u30c8\u3057\u306a\u304a\u3057\u305f\u6642\u306b\u300c\u30c9\u30e9\u30a4\u30d6\u306b\u554f\u984c\u304c\u3042\u308a\u307e\u3059\u300d\u3068\u306a\u308b\n\u4e0a\u8a18\u306e\u30b9\u30af\u30ea\u30d7\u30c8\u3060\u3051\u3067\u306fWRF\u306e\u30a4\u30f3\u30b9\u30c8\u30fc\u30eb\u306f\u30b9\u30e0\u30fc\u30ba\u306b\u3044\u304b\u306a\u3044\u3088\u3046\u3060\n\n\u4ee5\u4e0a\u306e\u7406\u7531\u306b\u3088\u308a\u3001Ubuntu\u3067\u306e\u30a4\u30f3\u30b9\u30c8\u30fc\u30eb\u306f\u30da\u30f3\u30c7\u30a3\u30f3\u30b0\u3068\u3059\u308b\u3053\u3068\u306b\u3057\u305f\u3002\nWRF (Weather Research and Forecasting Model)\u3068\u3044\u3046\u306e\u306f\u6c17\u8c61\u30e2\u30c7\u30eb\u3068\u3057\u3066\u5404\u7a2e\u306e\u30d5\u30a1\u30a4\u30eb\u3092\u751f\u6210\u3057\u3066\u304f\u308c\u308b\u3082\u306e\u3089\u3057\u3044\u3002\nhttp://www2.mmm.ucar.edu/wrf/users/\n\nWRF\u306e\u30bb\u30c3\u30c8\u30a2\u30c3\u30d7\u306b\u95a2\u9023\u3057\u3066\u4ee5\u4e0b\u3092\u898b\u3064\u3051\u305f\u3002\nhttps://github.com/piyushnz/weather-box\n\n\u4ee5\u4e0b\u304c\u3067\u304d\u308b\u3088\u3046\u3060\u3002\n\n- Vagrant Box + VirtualBox\u3067\u306e\u30bb\u30c3\u30c8\u30a2\u30c3\u30d7\n- Ubuntu 14.04 \u3078\u306e\u30a4\u30f3\u30b9\u30c8\u30fc\u30eb\u30b9\u30af\u30ea\u30d7\u30c8\n\nWRF\u306e\u30d0\u30fc\u30b8\u30e7\u30f3\u306f WRF V3.6.1 (updated 2/18/15)\u306a\u306e\u3067\u5c11\u3057\u53e4\u3044\u3002\n\u6700\u65b0\u306fWRF V3.8 (updated 4/8/16)\u306e\u3088\u3046\u3060\u3002\n( http://www2.mmm.ucar.edu/wrf/users/\u306e\u53f3\u4e0b )\u3002\n\n\n## VM\u30a4\u30e1\u30fc\u30b8\u3078\u306e\u30a4\u30f3\u30b9\u30c8\u30fc\u30eb\n\nVMWare\u4e0a\u306bubuntu-ja-14.04-desktop-amd64.iso\u3092\u7528\u3044\u3066Ubuntu 14.04\u3092\u30a4\u30f3\u30b9\u30c8\u30fc\u30eb\u3057\u3001\u4e0a\u8a18\u306e\u30b9\u30af\u30ea\u30d7\u30c8\u3092\u8a66\u3057\u305f\u3002\n\n- /home/[user]\u4ee5\u4e0b\u306bWRFinstall/\u3092\u4f5c\u6210\n- weeather-box-master.zip\u3092\u53d6\u5f97\n- unzip\u3067zip\u30d5\u30a1\u30a4\u30eb\u3092\u89e3\u51cd (\u89e3\u51cd\u5148: WRFinstall)\n- ~/WRFinstall/weather-box-master/provision/\u4ee5\u4e0b\u306e\u30d5\u30a1\u30a4\u30eb\u306bchmod 770\u3092\u5b9f\u884c\n- ~/WRFinstall/weather-box-master/provision/setup_environment.sh\u306e\u3088\u3046\u306b\u5404\u30b9\u30af\u30ea\u30d7\u30c8\u3092\u5b9f\u884c\n\nsetup_environment.sh\u3060\u3051\u30671\u6642\u9593\u8fd1\u304f\u304b\u304b\u3063\u305f\u3002\nUbuntu14.04\u30a4\u30f3\u30b9\u30c8\u30fc\u30eb\u76f4\u5f8c\u306fcurl\u304c\u306a\u3044\u306e\u3067\u3001atp-get install curl\u3067curl\u3092\u30a4\u30f3\u30b9\u30c8\u30fc\u30eb\u5fc5\u8981\u3042\u308a\u3002\n\ninstall_dependencies.sh\u5b9f\u884c\u6642`hdf5-1.8.14: No such file or directory`\u3068\u306a\u3063\u305f\u3002\n\n\u4ee5\u4e0b\u306b\u8a18\u8f09\u306e\u3088\u3046\u306b\u3044\u304f\u304b\u306e\u30d1\u30c3\u30b1\u30fc\u30b8\u3092\u30a4\u30f3\u30b9\u30c8\u30fc\u30eb\u3057\u306a\u3044\u3068\u5931\u6557\u3059\u308b\u3002\n[Install WRF model in Ubuntu Linux](https://tuxcoder.wordpress.com/2015/01/07/install-wrf-model-in-ubuntu-linux)\n\n>  sudo apt-get install m4 csh netcdf-bin hdf4-tools hdf5-tools zlib* jasper libpng-dev build-essential ncl-ncarg gcc gfortran libnetcdf-dev mpich\n\n\u3055\u3089\u306b\u3001\n\n- \u30b2\u30b9\u30c8OS\u3068\u306a\u3063\u3066\u3044\u308bUbuntu\u3092\u518d\u8d77\u52d5\u5f8c\u306b\u30cd\u30c3\u30c8\u30ef\u30fc\u30af\u306b\u3064\u306a\u304c\u3089\u306a\u3044\u75c7\u72b6\u304c\u51fa\u305f\n- Ubuntu\u3067microSD\u3092\u30de\u30a6\u30f3\u30c8\u3059\u308b\u3068\u3001\u305d\u308c\u3092Windows\u5074\u306b\u30de\u30a6\u30f3\u30c8\u3057\u306a\u304a\u3057\u305f\u6642\u306b\u300c\u30c9\u30e9\u30a4\u30d6\u306b\u554f\u984c\u304c\u3042\u308a\u307e\u3059\u300d\u3068\u306a\u308b\n- \u4e0a\u8a18\u306e\u30b9\u30af\u30ea\u30d7\u30c8\u3060\u3051\u3067\u306fWRF\u306e\u30a4\u30f3\u30b9\u30c8\u30fc\u30eb\u306f\u30b9\u30e0\u30fc\u30ba\u306b\u3044\u304b\u306a\u3044\u3088\u3046\u3060\n\n\u4ee5\u4e0a\u306e\u7406\u7531\u306b\u3088\u308a\u3001Ubuntu\u3067\u306e\u30a4\u30f3\u30b9\u30c8\u30fc\u30eb\u306f\u30da\u30f3\u30c7\u30a3\u30f3\u30b0\u3068\u3059\u308b\u3053\u3068\u306b\u3057\u305f\u3002\n\n", "tags": ["WRF"]}